30
Coordinates from ORCA-job /nobackup/pmljrh/data/HTC-structures/apath_HMF02_O/apath_HMF02_O
  C   -1.15636015242909      1.11341402463573     -0.06881655782517
  C   -0.77114045715286     -0.19957255821775     -0.10213670038298
  C   0.65159954531934     -0.18376238277527     -0.03438982186666
  C   1.04836256045471      1.12413661828295      0.03905045520000
  C   -2.46936848918301      1.79792971903480     -0.11630100115546
  H   -3.26397048127294      1.08340991623790     -0.32403817018649
  H   -2.47731692200694      2.56396333612955     -0.89443410860439
  H   -2.69123642204786      2.29424342093364      0.83244910939275
  C   -1.62729636221091     -1.42109150171495     -0.18901124943284
  H   -2.66972778857553     -1.16764126304375     -0.38223476110637
  H   -1.58985339828503     -1.99755477320563      0.73891891918402
  H   -1.28928021682186     -2.07832963964940     -0.99306515344300
  H   1.28058887130348     -1.05434016695085     -0.04359105844283
  C   3.57438197823373      1.07099338933981      0.03868151702184
  C   3.90930737923604     -0.25399533666692     -0.03369144796964
  C   5.32958905422616     -0.33781848996135     -0.08215622780256
  H   3.23959191198894     -1.09370481180157     -0.04661286145225
  C   5.77649181310104      0.95526797366996     -0.04600903931892
  O   4.72518491411431      1.80958494337860      0.03165797783429
  C   7.12320817077982      1.56989934394953     -0.08719114461784
  H   7.88893781774009      0.79784772300146     -0.14549067518160
  H   7.30756508902774      2.17722151901557      0.80188693934490
  H   7.22756573860700      2.22292640548568     -0.95725974462578
  C   6.12463408148823     -1.59916956272496     -0.17961139555735
  H   5.73474576256550     -2.35669875162169      0.50275569178699
  H   7.17358554227707     -1.43719954785761      0.06942657321131
  H   6.08063236766047     -2.01924065006256     -1.18836486478993
  O   -0.06613999805552      1.91575031802092      0.02077740649965
  C   2.32745022517649      1.84622420124815      0.09912126371922
  O   2.35205786474139      3.06464658389000      0.18064013056710
