28
Coordinates from ORCA-job /nobackup/pmljrh/data/HTC-structures/bpath_HMF01/bpath_HMF01
  C   0.28764692569678      0.81268006260723     -1.01965859382754
  C   1.32986205243086      1.62782541835163     -0.69349396479293
  C   0.20115018818044     -0.53616388904438     -1.62672371343270
  H   1.18956362164440     -0.85403220638917     -1.95570104663644
  H   -0.46567501223664     -0.53324426518529     -2.49232128680009
  H   -0.18233684227944     -1.27703050510268     -0.91911817168850
  C   3.48472956890528      0.26218770165014     -0.17214983821634
  C   4.78341875898904      0.39221773423914     -0.55792404426521
  O   4.91015271248845      1.45880151809315     -1.41029229728086
  C   6.02838005592865     -0.35403644163421     -0.24845369528301
  H   5.82114607802235     -1.15414172394008      0.46059623033663
  H   6.78481531491423      0.30255891276250      0.18911670657186
  H   6.45837847375996     -0.80390350872909     -1.14808529609778
  C   2.90448255171730     -0.73233141337148      0.77885488743765
  H   2.27892967098699     -0.23196293086085      1.52147666597449
  H   3.68294042904498     -1.28327680824879      1.30726234081654
  H   2.27105539744974     -1.46169006368541      0.26826619011639
  O   -0.89549754227399      1.44379459809099     -0.73686741673042
  C   3.67399036349062      2.01139601977946     -1.55877811813315
  C   2.75602503711690      1.32862400402357     -0.82712653655138
  H   3.60494486740197      2.86537514757591     -2.20946784081743
  C   -0.60447568235034      2.68304448098643     -0.22805582544118
  C   0.74114839873975      2.84296874837106     -0.19097749180862
  H   1.27447733247285      3.70871785259117      0.16529156016210
  C   -1.75583170817910      3.53881865629554      0.14407097627157
  H   -2.37197627026220      3.78213522490701     -0.72587597263256
  H   -1.39637393227044      4.47030708676053      0.58046087866217
  H   -2.39835080952940      3.04240058910595      0.87556471408671
