16
Coordinates from ORCA-job /nobackup/pmljrh/data/HTC-structures/levullinic_acid/levullinic_acid
  C   -1.85476320418833      0.03365562208607      0.03226530968337
  C   -0.50978936291912     -0.65253638101726      0.00637839662569
  H   -1.92542810662833      0.69626435964190      0.89846695874250
  H   -2.64858292563477     -0.70935399317427      0.07019533666731
  H   -1.97687535883595      0.66035824687764     -0.85480834899220
  C   0.70442193543769      0.25629673988006     -0.04115354064047
  C   2.01727199982448     -0.50195661922239      0.01179101377185
  H   0.63580310131539      0.97735963641114      0.77828015272252
  H   0.64187940560371      0.86450028057456     -0.94888508423700
  C   3.21723996854340      0.40588440463851     -0.01861134936348
  H   2.09879550673547     -1.20580979638287     -0.81908520862563
  H   2.07867779866212     -1.12056188741728      0.90948154054137
  O   -0.40828629100466     -1.85905411395196      0.01999256808623
  O   3.19647453230323      1.60863423095010     -0.09529241325230
  O   4.37366247205498     -0.29600249422304      0.05305403772645
  H   5.09711852873068      0.35022176432907      0.02090063054379
