39
Coordinates from ORCA-job /nobackup/pmljrh/data/HTC-structures/bpath_HMF03/bpath_HMF03
  C   -0.09235774581143     -0.75842754218440      0.66067698700792
  C   1.32294055875944     -0.80705976960546      0.36093623887756
  C   2.28762329393484      0.14450672177223      0.20352179888735
  C   -0.96539205684175      0.26309211965255      0.88312587875110
  O   3.46839505085708     -0.46413990055923     -0.07165132827223
  O   -2.19721248113172     -0.25080115722453      1.12450488986641
  C   -2.13975992783482     -1.60409105447969      1.06096829372592
  C   -0.86055670243649     -1.98612784360229      0.77522989748778
  C   1.97643309830184     -2.08410966517152      0.16682766756144
  C   -0.20351295792502     -3.26485726608090      0.58169910016361
  C   1.21364428729864     -3.30941211845325      0.27563586709043
  C   3.28651122087605     -1.80834157543096     -0.09483103040777
  C   -3.43711429780857     -2.26445257689277      1.31454104909617
  H   -4.18393059273673     -1.94676358247063      0.58056416808978
  H   -3.81884657491184     -1.99690951384811      2.30453367192363
  H   -3.34954358740540     -3.34362089205821      1.26514724015228
  C   -0.62305543122294     -4.56351874554443      0.61439882660853
  C   1.53862749116645     -4.62706241826353      0.14766967525025
  O   0.42944809807795     -5.37812827187267      0.35275211618767
  C   2.76386581734026     -5.40432099949913     -0.15212247738443
  H   3.54014637850972     -5.25710965984507      0.60137899292387
  H   3.18561459961076     -5.14436197603226     -1.12437752803406
  H   2.51103611895949     -6.46467355206260     -0.16956341743513
  C   -1.89673826253761     -5.27931204455408      0.85482323286117
  H   -2.66413381064975     -5.00871454156104      0.12529623674892
  H   -2.29300921333596     -5.08794721103912      1.85537962436723
  H   -1.71754678432216     -6.35134622930202      0.76791359795670
  C   4.51073305966512     -2.59127798924666     -0.38678906507621
  H   5.34379705018911     -1.90123523186734     -0.52122080468253
  H   4.41406109104757     -3.18118454428919     -1.30029824729201
  H   4.76698307656504     -3.27192178854163      0.42706506449766
  C   -0.89754938346598      1.74294129164617      0.91609381308607
  H   -0.58738969706074      2.16103247305147     -0.04325372285599
  H   -0.20838352600994      2.10648508745812      1.68038428557995
  H   -1.88843059017739      2.13424485463386      1.14648998515045
  C   2.35609841466895      1.62359962149005      0.26538425814814
  H   3.38114529804985      1.93563826790604      0.06526082098043
  H   2.07596672736995      2.00688917184409      1.24816399584558
  H   1.71186289237816      2.09837005212817     -0.47688965343366
