12
Coordinates from ORCA-job /nobackup/pmljrh/data/HTC-structures/DHA/DHA
  O   -3.41646596239702      2.62723802006207      0.08314367783139
  C   -2.29456073501527      3.47260405930471      0.16336459649316
  C   -1.00343994618692      2.66455613622448      0.07306096355650
  H   -2.26881292967487      4.03256497455946      1.10969232701800
  H   -2.28002702305913      4.21477653477512     -0.64779053687929
  C   0.25381690875750      3.52491597105674      0.16136439694509
  H   -4.21118401647494      3.16546163172894      0.15645048198061
  O   1.40948862343708      2.72876904577947      0.05748257271256
  H   0.21384555053176      4.06962922924914      1.11620665713248
  H   0.19990529919630      4.27841103474272     -0.63771264747621
  H   2.18053541654182      3.29997188934950      0.13684817320982
  O   -0.98001118565630      1.47240147316767     -0.04783066252410
