12
pyran
O      0.0000000000    0.0000000000    0.0000000000
C     -1.0877380000   -0.8449250000   -0.0015260000
H      1.8647990000   -0.1342770000   -0.8928410000
C     -0.9685230000   -2.2174790000   -0.0010290000
H     -1.8556980000   -2.8422560000   -0.0014510000
H      1.8678340000   -0.1327820000    0.8860620000
C      0.2754070000   -2.7875100000   -0.0001650000
H      0.3706470000   -3.8703230000    0.0008190000
H     -2.0382620000   -0.2902350000   -0.0022220000
C      1.3652020000   -2.0263830000   -0.0007930000
C      1.3549930000   -0.5116680000   -0.0022020000
H      2.3475820000   -2.4921860000   -0.0003430000
