27
Coordinates from ORCA-job /nobackup/pmljrh/data/HTC-structures/bpath_HMF02/bpath_HMF02
  C   -0.31215778518330     -1.09026717851313      0.28070248717526
  C   1.08470095761947     -1.04267962083824      0.10778354603394
  O   1.85214759306602      0.05535867683517     -0.04426884303616
  O   -1.16919424973068     -0.04846933969995      0.29733845070572
  C   3.14366179529978     -0.37750756332184     -0.16320266017771
  C   -2.42006352000921     -0.57105035855154      0.47597230782659
  C   -2.35969716974420     -1.92332439502315      0.56965102473570
  C   -0.98244352859188     -2.28397510316137      0.44438560849933
  C   1.85441491582964     -2.18711389839782      0.09216449526673
  C   -0.23139823381993     -3.50047119505991      0.43650318982071
  C   1.20775943532994     -3.45162513455011      0.25723308204643
  C   3.19598217200139     -1.73188738135076     -0.08774429428982
  C   4.17181203056876      0.67468425022705     -0.32626280683806
  H   3.69266286936756      1.62951687564067     -0.54178575585449
  H   4.84985164765293      0.43689549200664     -1.14805393051634
  H   4.77176559190419      0.79600269966631      0.58019826792946
  C   -3.52996153065859      0.39847461691231      0.53447879469556
  H   -4.47741556997332     -0.12904474558200      0.63772901939589
  H   -3.56848883540543      1.00845004634206     -0.37237314811929
  H   -3.41785061652665      1.07819203091204      1.38425011860208
  C   -0.54264036670614     -4.82205319139135      0.56764619284747
  C   1.62921930926328     -4.74830003105774      0.29485347893314
  O   0.57642471171110     -5.56998888014090      0.48148229968486
  H   -3.20431028309410     -2.57754571824960      0.71778652537395
  H   -1.46232714823859     -5.36116609498518      0.71648528205794
  H   2.59154211493298     -5.22294464671490      0.20965889133467
  H   4.09116369313497     -2.32994021195275     -0.15406162413356
